*SPEF "IEEE 1481-1998"
*DESIGN "i3c_slow_counters"
*DATE "Sun Apr 18 13:57:41 2021"
*VENDOR "AUC CSCE Department"
*PROGRAM "SPEF Extractor"
*VERSION "1.0"
*DESIGN_FLOW "PIN_CAP NONE"
*DIVIDER /
*DELIMITER :
*BUS_DELIMITER []
*T_UNIT 1.00000 NS
*C_UNIT 1.00000 PF
*R_UNIT 1.00000 OHM
*L_UNIT 1.00000 HENRY


*NAME_MAP
*0 CLK_SLOW
*1 RSTn
*2 cf_BAMatch[0]
*3 cf_BAMatch[1]
*4 cf_BAMatch[2]
*5 cf_BAMatch[3]
*6 cf_BAMatch[4]
*7 cf_BAMatch[5]
*8 cf_BAMatch[6]
*9 cf_BAMatch[7]
*10 cf_SlvEna
*11 clk_SCL
*12 clk_SCL_n
*13 done_100
*14 done_60
*15 event_pending[0]
*16 event_pending[1]
*17 event_pending[2]
*18 force_sda
*19 hold_engine
*20 int_in_STOP
*21 pin_SCL_in
*22 pin_SDA_in
*23 run_100
*24 run_60
*25 slow_gate
*26 _000_
*27 _001_
*28 _002_
*29 _003_
*30 _004_
*31 _005_
*32 _006_
*33 _007_
*34 _008_
*35 _009_
*36 _010_
*37 _011_
*38 _012_
*39 _013_
*40 _014_
*41 _015_
*42 _016_
*43 _017_
*44 _018_
*45 _019_
*46 _020_
*47 _021_
*48 _022_
*49 _023_
*50 _024_
*51 _025_
*52 _026_
*53 _027_
*54 _028_
*55 _029_
*56 _030_
*57 _031_
*58 _032_
*59 _033_
*60 _034_
*61 _035_
*62 _036_
*63 _037_
*64 _038_
*65 _039_
*66 _040_
*67 _041_
*68 _042_
*69 _043_
*70 _044_
*71 _045_
*72 _046_
*73 _047_
*74 _048_
*75 _049_
*76 _050_
*77 _051_
*78 _052_
*79 _053_
*80 _054_
*81 _055_
*82 _056_
*83 _057_
*84 _058_
*85 _059_
*86 _060_
*87 _061_
*88 _062_
*89 _063_
*90 _064_
*91 _065_
*92 _066_
*93 _067_
*94 _068_
*95 _069_
*96 _070_
*97 _071_
*98 _072_
*99 _073_
*100 _074_
*101 _075_
*102 _076_
*103 _077_
*104 _078_
*105 _079_
*106 _080_
*107 _081_
*108 _082_
*109 _083_
*110 _084_
*111 _085_
*112 _086_
*113 check_idle
*114 check_idle_n
*115 microsec_cnt\[0\]
*116 microsec_cnt\[1\]
*117 microsec_cnt\[2\]
*118 microsec_cnt\[3\]
*119 microsec_cnt\[4\]
*120 microsec_cnt\[5\]
*121 mid_cnt\[0\]
*122 mid_cnt\[1\]
*123 mid_cnt\[2\]
*124 mid_cnt\[3\]
*125 mid_cnt\[4\]
*126 mid_cnt\[5\]
*127 mid_cnt\[6\]
*128 request_start
*129 sync_idle_check.clk_copy
*130 sync_idle_check.scl_data
*131 sync_idle_check_n.clk_copy
*132 sync_idle_check_n.scl_data
*133 sync_sclsda_state.clk_copy
*134 sync_sclsda_state.scl_data
*135 net1
*136 net2
*137 net3
*138 net4
*139 net5
*140 net6
*141 net7
*142 net8
*143 net9
*144 net10
*145 net11
*146 net12
*147 net13
*148 net14
*149 net15
*150 net16
*151 net17
*152 net18
*153 net19
*154 net20
*155 net21
*156 net22
*157 net23
*158 net24
*159 clknet_0_CLK_SLOW
*160 clknet_1_0_0_CLK_SLOW
*161 clknet_1_1_0_CLK_SLOW

*D_NET *0 0.004931185413740001
*CONN
*P CLK_SLOW I
*I clkbuf_0_CLK_SLOW:A I
*CAP
0 *0:1 0.0010301515989800001
1 *0:3 6.898398368e-05
2 *0:4 0.00063506706336
3 *0:6 0.0017319397962000003
4 *0:8 0.00040117644959999997
5 *0:9 0.0010638665219200002
6 *0:5 0
7 clkbuf_0_CLK_SLOW:A 0
*RES
0 *0:1 *0:2 11.687499999999998
1 *0:3 *0:4 0.6071428571428571
2 *0:4 *0:5 6.571428571428571
3 *0:6 *0:7 19.732142857142858
4 *0:8 clkbuf_0_CLK_SLOW:A 4.107142857142857
5 *0:9 *0:3 11.089285714285714
6 *0:9 *0:2 0
7 *0:5 *0:6 0
8 *0:8 *0:7 0
9 clkbuf_0_CLK_SLOW:A clkbuf_0_CLK_SLOW:A 0
*END

*D_NET *1 0.0005811543394800001
*CONN
*P RSTn I
*I input1:A I
*CAP
8 *1:1 0.0004778928123
9 *1:3 0.00010326152718000001
10 input1:A 0
*RES
10 *1:1 *1:2 0.8287666666666667
11 *1:3 *1:4 1.0624999999999998
12 *1:3 *1:2 0
13 input1:A input1:A 0
14 input1:A *1:4 0
*END

*D_NET *2 0.0004364197454
*CONN
*P cf_BAMatch[0] I
*I input2:A I
*CAP
11 *2:1 0.0003596407917
12 *2:3 7.67789537e-05
13 *2:4 0
14 input2:A 0
*RES
15 *2:1 *2:2 0.6125666666666667
16 *2:3 *2:4 0.7589285714285713
17 *2:4 *2:2 0
18 input2:A input2:A 0
19 input2:A *2:3 0
*END

*D_NET *3 0.0009451108955000001
*CONN
*P cf_BAMatch[1] I
*I input3:A I
*CAP
15 *3:1 0.0002062676048
16 *3:2 0.0007388432907000001
17 input3:A 0
*RES
20 *3:1 input3:A 2.0535714285714284
21 *3:2 *3:3 8.348214285714285
22 input3:A input3:A 0
23 *3:1 *3:2 0
*END

*D_NET *4 0.00133463400546
*CONN
*P cf_BAMatch[2] I
*I input4:A I
*CAP
18 *4:1 0.00065939557026
19 *4:3 0.00063506706336
20 *4:4 4.017137184e-05
21 input4:A 0
*RES
24 *4:1 *4:2 7.437499999999999
25 *4:3 *4:4 6.571428571428571
26 *4:4 input4:A 0.30357142857142855
27 *4:3 *4:2 0
28 input4:A input4:A 0
*END

*D_NET *5 0.0009506842881199999
*CONN
*P cf_BAMatch[3] I
*I input5:A I
*CAP
22 *5:1 0.00031512211502
23 *5:3 0.0006355621730999999
24 input5:A 0
25 *5:2 0
*RES
29 *5:1 *5:2 3.4910714285714284
30 *5:3 *5:4 1.1170333333333335
31 input5:A input5:A 0
32 input5:A *5:1 0
33 *5:2 *5:3 0
*END

*D_NET *6 0.00064828033324
*CONN
*P cf_BAMatch[4] I
*I input6:A I
*CAP
26 *6:1 0.0003596407917
27 *6:3 0.00028863954154000006
28 *6:4 0
29 input6:A 0
*RES
34 *6:1 *6:2 0.6125666666666667
35 *6:3 *6:4 3.1874999999999996
36 *6:4 *6:2 0
37 input6:A input6:A 0
38 input6:A *6:3 0
*END

*D_NET *7 0.0004364197454
*CONN
*P cf_BAMatch[5] I
*I input7:A I
*CAP
30 *7:1 0.0003596407917
31 *7:3 7.67789537e-05
32 input7:A 0
*RES
39 *7:1 *7:2 0.6125666666666667
40 *7:3 *7:4 0.7589285714285713
41 *7:3 *7:2 0
42 input7:A input7:A 0
43 input7:A *7:4 0
*END

*D_NET *8 0.0007891838196600001
*CONN
*P cf_BAMatch[6] I
*I input8:A I
*CAP
33 *8:1 5.034052896000001e-05
34 *8:2 0.0007388432907000001
35 input8:A 0
*RES
44 *8:1 input8:A 0.4107142857142857
45 *8:2 *8:3 8.348214285714285
46 input8:A input8:A 0
47 *8:1 *8:2 0
*END

*D_NET *9 0.0007388432907000001
*CONN
*P cf_BAMatch[7] I
*I input9:A I
*CAP
36 *9:1 0.0007388432907000001
37 input9:A 0
*RES
48 *9:1 *9:2 8.348214285714285
49 input9:A input9:A 0
50 input9:A *9:1 0
*END

*D_NET *10 0.00121798327822
*CONN
*P cf_SlvEna I
*I input10:A I
*CAP
38 input10:A 0.0004791399875199999
39 *10:2 0.0007388432907000001
40 *10:1 0
*RES
51 input10:A *10:1 4.928571428571428
52 *10:2 *10:3 8.348214285714285
53 input10:A input10:A 0
54 *10:1 *10:2 0
*END

*D_NET *11 0.00064828033324
*CONN
*P clk_SCL I
*I _200_:CLK I
*CAP
41 *11:1 0.0003596407917
42 *11:3 0.00028863954154000006
43 _200_:CLK 0
*RES
55 *11:1 *11:2 0.6125666666666667
56 *11:3 *11:4 3.1874999999999996
57 *11:3 *11:2 0
58 _200_:CLK _200_:CLK 0
59 _200_:CLK *11:4 0
*END

*D_NET *12 0.0013283661197000002
*CONN
*P clk_SCL_n I
*I _192_:CLK I
*CAP
44 *12:1 0.00024524937376
45 *12:2 0.0010831167459400002
46 _192_:CLK 0
*RES
60 *12:1 _192_:CLK 2.464285714285714
61 *12:2 *12:3 12.294642857142856
62 *12:1 *12:3 0
63 _192_:CLK _192_:CLK 0
*END

*D_NET *13 0.0006064304233
*CONN
*P done_100 O
*I output19:X O
*CAP
47 *13:1 0.0006064304233
48 output19:X 0
*RES
64 *13:1 *13:2 6.830357142857142
65 output19:X output19:X 0
66 output19:X *13:2 0
*END

*D_NET *14 0.00294779698164
*CONN
*P done_60 O
*I output20:X O
*CAP
49 *14:1 0.00044015821855999997
50 *14:2 0.00116256446638
51 *14:4 0.0013450742967
52 output20:X 0
53 *14:3 0
*RES
67 *14:1 output20:X 4.517857142857142
68 *14:2 *14:3 13.20535714285714
69 *14:4 *14:5 2.4142333333333332
70 output20:X output20:X 0
71 *14:1 *14:2 0
72 *14:3 *14:4 0
*END

*D_NET *15 0.0009061291265400001
*CONN
*P event_pending[0] I
*I input11:A I
*CAP
54 *15:1 0.00016728583584
55 *15:2 0.0007388432907000001
56 input11:A 0
*RES
73 *15:1 input11:A 1.6428571428571428
74 *15:2 *15:3 8.348214285714285
75 input11:A input11:A 0
76 *15:1 *15:2 0
*END

*D_NET *16 0.0009701092864600002
*CONN
*P event_pending[1] I
*I input12:A I
*CAP
57 *16:1 0.0006858781437400002
58 input12:A 0.00028423114272
59 *16:3 0
*RES
77 *16:1 *16:2 7.741071428571428
78 input12:A *16:3 2.875
79 *16:3 *16:2 0
80 input12:A input12:A 0
*END

*D_NET *17 0.00109725800232
*CONN
*P event_pending[2] I
*I input13:A I
*CAP
60 *17:1 0.0005173101524999999
61 *17:3 0.00057994784982
62 input13:A 0
*RES
81 *17:1 *17:2 0.9008333333333334
82 *17:3 *17:4 6.5267857142857135
83 *17:3 *17:1 0
84 input13:A input13:A 0
85 input13:A *17:4 0
*END

*D_NET *18 0.0008266814061000001
*CONN
*P force_sda O
*I output21:X O
*CAP
63 output21:X 0.00016728583584
64 *18:2 0.00065939557026
65 *18:1 0
*RES
86 output21:X *18:1 1.6428571428571428
87 *18:2 *18:3 7.437499999999999
88 output21:X output21:X 0
89 *18:1 *18:2 0
*END

*D_NET *19 0.0006064304233
*CONN
*P hold_engine O
*I output22:X O
*CAP
66 *19:1 0.0006064304233
67 output22:X 0
*RES
90 *19:1 *19:2 6.830357142857142
91 output22:X output22:X 0
92 output22:X *19:2 0
*END

*D_NET *20 0.00108705459334
*CONN
*P int_in_STOP I
*I input14:A I
*CAP
68 *20:1 0.0006858781437400002
69 *20:3 0.00040117644959999997
70 input14:A 0
*RES
93 *20:1 *20:2 7.741071428571428
94 *20:3 input14:A 4.107142857142857
95 *20:3 *20:2 0
96 input14:A input14:A 0
*END

*D_NET *21 0.00075298454708
*CONN
*P pin_SCL_in I
*I input15:A I
*CAP
71 *21:1 0.00023567439458000006
72 *21:3 0.0005173101524999999
73 input15:A 0
74 *21:2 0
*RES
97 *21:1 *21:2 2.580357142857143
98 *21:3 *21:4 0.9008333333333334
99 input15:A input15:A 0
100 input15:A *21:1 0
101 *21:2 *21:3 0
*END

*D_NET *22 0.0007388432907000001
*CONN
*P pin_SDA_in I
*I input16:A I
*CAP
75 *22:1 0.0007388432907000001
76 input16:A 0
*RES
102 *22:1 *22:2 8.348214285714285
103 input16:A input16:A 0
104 input16:A *22:1 0
*END

*D_NET *23 0.00054112395924
*CONN
*P run_100 I
*I input17:A I
*CAP
77 *23:1 2.3813806740000006e-05
78 *23:3 0.0005173101524999999
79 input17:A 0
80 *23:2 0
*RES
105 *23:1 *23:2 0.15178571428571427
106 *23:3 *23:4 0.9008333333333334
107 input17:A input17:A 0
108 input17:A *23:1 0
109 *23:2 *23:3 0
*END

*D_NET *24 0.0011095993194200002
*CONN
*P run_60 I
*I input18:A I
*CAP
81 *24:1 0.0011095993194200002
82 input18:A 0
*RES
110 *24:1 *24:2 12.598214285714285
111 input18:A input18:A 0
112 input18:A *24:2 0
*END

*D_NET *25 0.00065939557026
*CONN
*P slow_gate O
*I output23:X O
*CAP
83 *25:1 0.00065939557026
84 output23:X 0
*RES
113 *25:1 *25:2 7.437499999999999
114 output23:X output23:X 0
115 output23:X *25:1 0
*END

*D_NET *26 0.0003492529922
*CONN
*I _180_:D I
*I _176_:Y O
*CAP
85 _176_:Y 0.0002062676048
86 *26:2 0.00014298538739999998
87 *26:1 0
88 _180_:D 0
*RES
116 _176_:Y *26:1 2.0535714285714284
117 *26:2 *26:3 1.5178571428571426
118 _176_:Y _176_:Y 0
119 *26:1 *26:2 0
120 _180_:D _180_:D 0
121 _180_:D *26:3 0
*END

*D_NET *27 0.0014356642402
*CONN
*I _179_:A1 I
*I _168_:Y O
*CAP
89 _168_:Y 0.00086895767712
90 *27:2 0.00056670656308
91 *27:1 0
92 _179_:A1 0
*RES
122 _168_:Y *27:1 9.035714285714285
123 *27:2 *27:3 6.374999999999999
124 _168_:Y _168_:Y 0
125 *27:1 *27:2 0
126 _179_:A1 _179_:A1 0
127 _179_:A1 *27:3 0
*END

*D_NET *28 0.00047988709744000005
*CONN
*I _179_:X O
*I _114_:B1 I
*CAP
93 *28:1 0.00011650281392
94 *28:3 0.00032321291168
95 *28:4 4.017137184e-05
96 _179_:X 0
97 _114_:B1 0
*RES
128 *28:1 *28:2 1.2142857142857142
129 *28:3 *28:4 3.2857142857142856
130 *28:4 _114_:B1 0.30357142857142855
131 _179_:X _179_:X 0
132 _179_:X *28:1 0
133 *28:3 *28:2 0
134 _114_:B1 _114_:B1 0
*END

*D_NET *29 0.0007654545093600001
*CONN
*I _179_:S I
*I _090_:B I
*I _089_:Y O
*CAP
98 _090_:B 0.00024524937376
99 *29:2 0.00016946796088000002
100 *29:4 0.00022243310784000002
101 *29:6 0.00012830406688
102 *29:1 0
103 _089_:Y 0
104 _179_:S 0
*RES
135 _090_:B *29:1 2.464285714285714
136 *29:2 *29:3 1.8214285714285714
137 *29:4 *29:5 2.4285714285714284
138 *29:6 _090_:B 1.232142857142857
139 _090_:B _090_:B 0
140 *29:1 *29:2 0
141 _089_:Y _089_:Y 0
142 _089_:Y *29:3 0
143 _179_:S _179_:S 0
144 _179_:S *29:4 0
145 *29:6 *29:5 0
*END

*D_NET *30 0.00204865169912
*CONN
*I _179_:A0 I
*I _145_:B I
*I _142_:C1 I
*I _141_:Y O
*CAP
105 *30:1 4.017137184e-05
106 *30:2 0.00040117644959999997
107 *30:3 0.00014298538739999998
108 _141_:Y 0.00016728583584
109 _145_:B 0.0003621946806399999
110 *30:6 5.034052896000001e-05
111 *30:7 0.00088449744484
112 *30:5 0
113 _179_:A0 0
114 _142_:C1 0
115 *30:9 0
*RES
146 *30:1 _145_:B 0.30357142857142855
147 *30:2 *30:1 4.107142857142857
148 *30:3 *30:4 1.5178571428571426
149 _141_:Y *30:5 1.6428571428571428
150 _145_:B _179_:A0 3.6964285714285707
151 *30:6 _142_:C1 0.4107142857142857
152 *30:7 *30:8 10.017857142857142
153 _145_:B _145_:B 0
154 *30:2 *30:4 0
155 *30:5 *30:3 0
156 _141_:Y _141_:Y 0
157 _179_:A0 _179_:A0 0
158 _142_:C1 _142_:C1 0
159 *30:6 *30:8 0
160 *30:9 *30:7 0
*END

*D_NET *31 0.00040073395664000003
*CONN
*I _184_:D I
*I _166_:X O
*CAP
116 *31:1 0.00028423114272
117 *31:2 0.00011650281392
118 _166_:X 0
119 _184_:D 0
*RES
161 *31:1 _166_:X 2.875
162 *31:2 *31:3 1.2142857142857142
163 _166_:X _166_:X 0
164 *31:1 *31:2 0
165 _184_:D _184_:D 0
166 _184_:D *31:3 0
*END

*D_NET *32 0.00016684334288000002
*CONN
*I _185_:D I
*I _164_:X O
*CAP
120 *32:1 5.034052896000001e-05
121 *32:2 0.00011650281392
122 _185_:D 0
123 _164_:X 0
*RES
167 *32:1 _185_:D 0.4107142857142857
168 *32:2 *32:3 1.2142857142857142
169 _185_:D _185_:D 0
170 *32:1 *32:2 0
171 _164_:X _164_:X 0
172 _164_:X *32:3 0
*END

*D_NET *33 0.00061259454448
*CONN
*I _186_:D I
*I _155_:X O
*CAP
124 *33:1 0.00028423114272
125 *33:2 0.00032836340175999997
126 _155_:X 0
127 _186_:D 0
*RES
173 *33:1 _155_:X 2.875
174 *33:2 *33:3 3.642857142857143
175 _155_:X _155_:X 0
176 *33:1 *33:2 0
177 _186_:D _186_:D 0
178 _186_:D *33:3 0
*END

*D_NET *34 0.00046619829908
*CONN
*I _187_:D I
*I _154_:X O
*CAP
128 *34:1 0.00014298538739999998
129 *34:3 0.00032321291168
130 _187_:D 0
131 _154_:X 0
*RES
179 *34:1 *34:2 1.5178571428571426
180 *34:3 _154_:X 3.2857142857142856
181 _187_:D _187_:D 0
182 _187_:D *34:1 0
183 *34:3 *34:2 0
184 _154_:X _154_:X 0
*END

*D_NET *35 0.0010634240289599999
*CONN
*I _188_:D I
*I _152_:X O
*CAP
132 *35:1 0.00011650281392
133 *35:3 0.0009469212150399999
134 _188_:D 0
135 _152_:X 0
*RES
185 *35:1 *35:2 1.2142857142857142
186 *35:3 _152_:X 9.857142857142856
187 _188_:D _188_:D 0
188 _188_:D *35:1 0
189 *35:3 *35:2 0
190 _152_:X _152_:X 0
*END

*D_NET *36 0.0007019168424
*CONN
*I _189_:D I
*I _151_:X O
*CAP
136 *36:1 0.00024524937376
137 *36:2 0.00032836340175999997
138 _189_:D 0.00012830406688
139 _151_:X 0
140 *36:4 0
*RES
191 *36:1 _151_:X 2.464285714285714
192 *36:2 *36:3 3.642857142857143
193 _189_:D *36:4 1.232142857142857
194 _151_:X _151_:X 0
195 *36:1 *36:2 0
196 *36:4 *36:3 0
197 _189_:D _189_:D 0
*END

*D_NET *37 0.00011650281392
*CONN
*I _190_:D I
*I _142_:X O
*CAP
141 *37:1 0.00011650281392
142 _142_:X 0
143 _190_:D 0
*RES
198 *37:1 *37:2 1.2142857142857142
199 _142_:X _142_:X 0
200 _142_:X *37:1 0
201 _190_:D _190_:D 0
202 _190_:D *37:2 0
*END

*D_NET *38 0.00076555325528
*CONN
*I _191_:D I
*I _140_:X O
*CAP
144 *38:1 0.00016946796088000002
145 _140_:X 0.0005960852944
146 _191_:D 0
147 *38:3 0
*RES
203 *38:1 *38:2 1.8214285714285714
204 _140_:X *38:3 6.160714285714286
205 _191_:D _191_:D 0
206 _191_:D *38:1 0
207 *38:3 *38:2 0
208 _140_:X _140_:X 0
*END

*D_NET *39 0.0002448068808
*CONN
*I _192_:D I
*I _137_:X O
*CAP
148 *39:1 0.00011650281392
149 _137_:X 0.00012830406688
150 _192_:D 0
151 *39:3 0
*RES
209 *39:1 *39:2 1.2142857142857142
210 _137_:X *39:3 1.232142857142857
211 _192_:D _192_:D 0
212 _192_:D *39:1 0
213 *39:3 *39:2 0
214 _137_:X _137_:X 0
*END

*D_NET *40 0.00031027122324
*CONN
*I _193_:D I
*I _136_:X O
*CAP
152 *40:1 0.00014298538739999998
153 *40:3 0.00016728583584
154 _193_:D 0
155 _136_:X 0
*RES
215 *40:1 *40:2 1.5178571428571426
216 *40:3 _136_:X 1.6428571428571428
217 _193_:D _193_:D 0
218 _193_:D *40:1 0
219 *40:3 *40:2 0
220 _136_:X _136_:X 0
*END

*D_NET *41 0.0005375993716
*CONN
*I _194_:D I
*I _135_:Y O
*CAP
156 _135_:Y 5.034052896000001e-05
157 *41:2 0.00048725884264
158 *41:1 0
159 _194_:D 0
*RES
221 _135_:Y *41:1 0.4107142857142857
222 *41:2 *41:3 5.4642857142857135
223 _135_:Y _135_:Y 0
224 *41:1 *41:3 0
225 _194_:D _194_:D 0
226 _194_:D *41:2 0
*END

*D_NET *42 0.00048315004212
*CONN
*I _195_:D I
*I _133_:Y O
*CAP
160 *42:1 0.00012830406688
161 *42:2 0.00035484597524
162 _133_:Y 0
163 _195_:D 0
*RES
227 *42:1 _133_:Y 1.232142857142857
228 *42:2 *42:3 3.946428571428571
229 _133_:Y _133_:Y 0
230 *42:1 *42:2 0
231 _195_:D _195_:D 0
232 _195_:D *42:3 0
*END

*D_NET *43 0.00044119990812
*CONN
*I _196_:D I
*I _130_:Y O
*CAP
164 *43:1 0.00019595053436
165 _196_:D 0.00024524937376
166 _130_:Y 0
167 *43:3 0
*RES
233 *43:1 *43:2 2.1249999999999996
234 _196_:D *43:3 2.464285714285714
235 _130_:Y _130_:Y 0
236 _130_:Y *43:1 0
237 *43:3 *43:2 0
238 _196_:D _196_:D 0
*END

*D_NET *44 0.0005721285930000001
*CONN
*I _197_:D I
*I _126_:Y O
*CAP
168 *44:1 0.00032321291168
169 *44:2 0.00024891568132000004
170 _126_:Y 0
171 _197_:D 0
*RES
239 *44:1 _126_:Y 3.2857142857142856
240 *44:2 *44:3 2.7321428571428568
241 _126_:Y _126_:Y 0
242 *44:1 *44:3 0
243 _197_:D _197_:D 0
244 _197_:D *44:2 0
*END

*D_NET *45 0.00041768569967999997
*CONN
*I _198_:D I
*I _123_:Y O
*CAP
172 _123_:Y 8.932229792e-05
173 *45:2 0.00032836340175999997
174 *45:1 0
175 _198_:D 0
*RES
245 _123_:Y *45:1 0.8214285714285714
246 *45:2 *45:3 3.642857142857143
247 _123_:Y _123_:Y 0
248 *45:1 *45:2 0
249 _198_:D _198_:D 0
250 _198_:D *45:3 0
*END

*D_NET *46 0.00033412917872
*CONN
*I _199_:D I
*I _119_:X O
*CAP
176 *46:1 8.932229792e-05
177 *46:2 0.00011650281392
178 _199_:D 0.00012830406688
179 _119_:X 0
180 *46:4 0
*RES
251 *46:1 _119_:X 0.8214285714285714
252 *46:2 *46:3 1.2142857142857142
253 _199_:D *46:4 1.232142857142857
254 _119_:X _119_:X 0
255 *46:1 *46:2 0
256 *46:4 *46:3 0
257 _199_:D _199_:D 0
*END

*D_NET *47 0.00066852805648
*CONN
*I _200_:D I
*I _177_:X O
*CAP
181 _200_:D 0.00012830406688
182 *47:2 0.0005402239896
183 *47:1 0
184 _177_:X 0
*RES
258 _200_:D *47:1 1.232142857142857
259 *47:2 *47:3 6.07142857142857
260 _200_:D _200_:D 0
261 *47:1 *47:2 0
262 _177_:X _177_:X 0
263 _177_:X *47:3 0
*END

*D_NET *48 0.00035484597524
*CONN
*I _132_:A2 I
*I _131_:X O
*CAP
185 *48:1 0.00035484597524
186 _131_:X 0
187 _132_:A2 0
*RES
264 *48:1 *48:2 3.946428571428571
265 _131_:X _131_:X 0
266 _131_:X *48:1 0
267 _132_:A2 _132_:A2 0
268 _132_:A2 *48:2 0
*END

*D_NET *49 0.0006233149778
*CONN
*I _133_:A I
*I _132_:X O
*CAP
188 *49:1 0.00014298538739999998
189 *49:3 0.0004803295904
190 _132_:X 0
191 *49:4 0
192 _133_:A 0
*RES
269 *49:1 *49:2 1.5178571428571426
270 *49:3 *49:4 4.517857142857142
271 *49:3 _133_:A 0.30357142857142855
272 _132_:X _132_:X 0
273 _132_:X *49:1 0
274 *49:4 *49:2 0
275 _133_:A _133_:A 0
*END

*D_NET *50 0.00035222135724000006
*CONN
*I _135_:B2 I
*I _134_:X O
*CAP
193 _134_:X 5.034052896000001e-05
194 *50:2 0.00030188082828000006
195 *50:1 0
196 _135_:B2 0
*RES
276 _134_:X *50:1 0.4107142857142857
277 *50:2 *50:3 3.339285714285714
278 _134_:X _134_:X 0
279 *50:1 *50:2 0
280 _135_:B2 _135_:B2 0
281 _135_:B2 *50:3 0
*END

*D_NET *51 0.0005861611384
*CONN
*I _140_:A2 I
*I _138_:Y O
*CAP
197 *51:1 0.00032836340175999997
198 *51:3 8.932229792e-05
199 _140_:A2 4.017137184e-05
200 *51:5 0.00012830406688
201 _138_:Y 0
202 *51:4 0
*RES
282 *51:1 *51:2 3.642857142857143
283 *51:3 *51:4 0.8214285714285714
284 _140_:A2 *51:3 0.30357142857142855
285 *51:5 _138_:Y 1.232142857142857
286 _138_:Y _138_:Y 0
287 *51:5 *51:2 0
288 *51:4 *51:1 0
289 _140_:A2 _140_:A2 0
*END

*D_NET *52 0.00025879025880000005
*CONN
*I _140_:C1 I
*I _139_:Y O
*CAP
203 _139_:Y 8.932229792e-05
204 *52:2 0.00016946796088000002
205 *52:1 0
206 _140_:C1 0
*RES
290 _139_:Y *52:1 0.8214285714285714
291 *52:2 *52:3 1.8214285714285714
292 _139_:Y _139_:Y 0
293 *52:1 *52:2 0
294 _140_:C1 _140_:C1 0
295 _140_:C1 *52:3 0
*END

*D_NET *53 0.00272986432446
*CONN
*I _155_:B1 I
*I _153_:B2 I
*I _152_:A2 I
*I _147_:B I
*I _144_:B I
*I _143_:X O
*CAP
207 *53:1 0.00051263044782
208 *53:3 5.034052896000001e-05
209 *53:4 0.00020919182110000001
210 *53:5 4.640188412000001e-05
211 *53:6 0.00079218374208
212 *53:8 0.00022243310784000002
213 *53:9 5.029638022e-05
214 *53:11 0.00019595053436
215 *53:13 0.00024524937376
216 _144_:B 5.034052896000001e-05
217 *53:15 0.00035484597524
218 _143_:X 0
219 _155_:B1 0
220 *53:7 0
221 _153_:B2 0
222 _152_:A2 0
223 _147_:B 0
224 *53:14 0
*RES
296 *53:1 *53:2 4.4017857142857135
297 *53:3 _143_:X 0.4107142857142857
298 *53:4 *53:5 2.276785714285714
299 *53:5 *53:1 0.4107142857142857
300 *53:6 *53:7 0.30357142857142855
301 *53:8 *53:4 2.4285714285714284
302 *53:9 *53:10 0.45535714285714285
303 *53:11 *53:12 2.1249999999999996
304 *53:13 _147_:B 2.464285714285714
305 _144_:B *53:14 0.4107142857142857
306 *53:15 *53:11 3.946428571428571
307 *53:6 *53:13 7.803571428571428
308 *53:1 *53:9 1.232142857142857
309 *53:3 *53:2 0
310 _143_:X _143_:X 0
311 _155_:B1 _155_:B1 0
312 _155_:B1 *53:4 0
313 *53:7 *53:8 0
314 _153_:B2 _153_:B2 0
315 _153_:B2 *53:10 0
316 _152_:A2 _152_:A2 0
317 _152_:A2 *53:11 0
318 *53:13 *53:12 0
319 _147_:B _147_:B 0
320 _144_:B _144_:B 0
321 *53:14 *53:15 0
*END

*D_NET *54 0.00117519230704
*CONN
*I _151_:A2 I
*I _149_:A_N I
*I _144_:X O
*CAP
225 _149_:A_N 0.00012830406688
226 *54:2 0.00056670656308
227 _144_:X 0.00028423114272
228 *54:5 0.00019595053436
229 *54:1 0
230 _151_:A2 0
231 *54:4 0
*RES
322 _149_:A_N *54:1 1.232142857142857
323 *54:2 *54:3 6.374999999999999
324 _144_:X *54:4 2.875
325 *54:5 *54:2 2.1249999999999996
326 _149_:A_N _149_:A_N 0
327 *54:1 *54:2 0
328 _151_:A2 _151_:A2 0
329 _151_:A2 *54:3 0
330 _144_:X _144_:X 0
331 *54:4 *54:5 0
*END

*D_NET *55 0.0031048007437599998
*CONN
*I _155_:B2 I
*I _154_:B1 I
*I _151_:A3 I
*I _149_:B I
*I _148_:B1 I
*I _145_:X O
*CAP
232 *55:1 0.00013881539712
233 *55:3 5.034052896000001e-05
234 *55:4 0.00019595053436
235 *55:6 0.00040117644959999997
236 _149_:B 0.00040117644959999997
237 *55:7 6.898398368e-05
238 *55:8 5.034052896000001e-05
239 *55:9 0.00027525158848
240 *55:5 0.00038132854871999994
241 *55:2 0.00011000278528
242 *55:12 0.0008884485616
243 *55:14 0.00014298538739999998
244 _155_:B2 0
245 _148_:B1 0
246 _145_:X 0
247 _151_:A3 0
248 *55:10 0
249 _154_:B1 0
250 *55:16 0
*RES
332 *55:1 _155_:B2 0.6071428571428571
333 *55:1 *55:2 0.6160714285714285
334 *55:3 _148_:B1 0.4107142857142857
335 *55:4 *55:5 2.1249999999999996
336 *55:6 _145_:X 4.107142857142857
337 _149_:B *55:7 4.107142857142857
338 *55:7 *55:6 0.6071428571428571
339 *55:8 _151_:A3 0.4107142857142857
340 *55:9 *55:8 0.6071428571428571
341 *55:9 *55:10 2.0535714285714284
342 *55:5 *55:11 4.249999999999999
343 *55:2 *55:12 0.30357142857142855
344 *55:12 *55:13 9.241071428571427
345 *55:14 *55:15 1.5178571428571426
346 *55:2 *55:16 0.6160714285714285
347 _155_:B2 _155_:B2 0
348 _148_:B1 _148_:B1 0
349 *55:3 *55:5 0
350 *55:6 *55:4 0
351 _145_:X _145_:X 0
352 _149_:B _149_:B 0
353 _151_:A3 _151_:A3 0
354 *55:10 *55:11 0
355 _154_:B1 _154_:B1 0
356 _154_:B1 *55:14 0
357 *55:16 *55:15 0
*END

*D_NET *56 0.0007697112231999999
*CONN
*I _147_:C I
*I _146_:X O
*CAP
251 _147_:C 4.017137184e-05
252 *56:1 0.00040117644959999997
253 *56:3 0.00032836340175999997
254 *56:2 0
255 _146_:X 0
*RES
358 _147_:C *56:1 0.30357142857142855
359 *56:1 *56:2 4.107142857142857
360 *56:3 *56:4 3.642857142857143
361 _147_:C _147_:C 0
362 *56:2 *56:3 0
363 _146_:X _146_:X 0
364 _146_:X *56:4 0
*END

*D_NET *57 0.00050666425056
*CONN
*I _170_:A I
*I _148_:A2 I
*I _147_:X O
*CAP
256 _147_:X 0.00028423114272
257 *57:1 0.00022243310784000002
258 _170_:A 0
259 _148_:A2 0
260 *57:3 0
*RES
365 _147_:X _170_:A 2.875
366 *57:1 *57:2 2.4285714285714284
367 _170_:A _170_:A 0
368 _147_:X _147_:X 0
369 _148_:A2 _148_:A2 0
370 _148_:A2 *57:1 0
371 *57:3 *57:2 0
*END

*D_NET *58 0.0018970166661600003
*CONN
*I _155_:A2 I
*I _154_:A2 I
*I _150_:A I
*I _148_:Y O
*CAP
261 *58:1 0.00022243310784000002
262 *58:3 0.0011820014316800001
263 *58:4 5.034052896000001e-05
264 *58:5 0.00016946796088000002
265 *58:7 0.00022243310784000002
266 *58:9 5.034052896000001e-05
267 _154_:A2 0
268 _155_:A2 0
269 _148_:Y 0
270 *58:8 0
271 _150_:A 0
*RES
372 *58:1 *58:2 2.4285714285714284
373 *58:3 _154_:A2 0.30357142857142855
374 *58:4 _148_:Y 0.4107142857142857
375 *58:5 *58:6 1.8214285714285714
376 *58:7 *58:5 2.4285714285714284
377 *58:3 *58:8 11.910714285714285
378 *58:9 _155_:A2 0.4107142857142857
379 _154_:A2 _154_:A2 0
380 _154_:A2 *58:1 0
381 *58:9 *58:2 0
382 _155_:A2 _155_:A2 0
383 _148_:Y _148_:Y 0
384 *58:4 *58:5 0
385 *58:8 *58:6 0
386 _150_:A _150_:A 0
387 _150_:A *58:7 0
*END

*D_NET *59 0.0006346737378
*CONN
*I _152_:A3 I
*I _150_:B I
*I _149_:X O
*CAP
272 *59:1 5.034052896000001e-05
273 *59:2 0.00014298538739999998
274 _150_:B 4.017137184e-05
275 _149_:X 0.00040117644959999997
276 _152_:A3 0
*RES
388 *59:1 _149_:X 0.4107142857142857
389 *59:2 *59:3 1.5178571428571426
390 _150_:B *59:4 0.30357142857142855
391 _149_:X *59:4 4.107142857142857
392 _149_:X _149_:X 0
393 *59:1 *59:2 0
394 _152_:A3 _152_:A3 0
395 _152_:A3 *59:3 0
396 _150_:B _150_:B 0
*END

*D_NET *60 0.00106975367348
*CONN
*I _152_:B2 I
*I _151_:B2 I
*I _150_:X O
*CAP
277 _150_:X 5.034052896000001e-05
278 *60:1 0.00056670656308
279 _151_:B2 5.034052896000001e-05
280 _152_:B2 0.0003621946806399999
281 *60:5 4.017137184e-05
282 *60:3 0
*RES
397 _150_:X _150_:X 0.4107142857142857
398 *60:1 *60:2 6.374999999999999
399 _151_:B2 *60:3 0.4107142857142857
400 _152_:B2 *60:4 3.6964285714285707
401 *60:5 *60:4 0.30357142857142855
402 _150_:X _150_:X 0
403 _150_:X *60:1 0
404 *60:3 *60:2 0
405 _151_:B2 _151_:B2 0
406 _152_:B2 _152_:B2 0
407 *60:5 *60:6 0
*END

*D_NET *61 0.00067691845144
*CONN
*I _154_:B2 I
*I _153_:X O
*CAP
283 _154_:B2 5.034052896000001e-05
284 *61:2 0.00038132854871999994
285 _153_:X 0.00024524937376
286 *61:1 0
287 *61:4 0
*RES
408 _154_:B2 *61:1 0.4107142857142857
409 *61:2 *61:3 4.249999999999999
410 _153_:X *61:4 2.464285714285714
411 _153_:X _153_:X 0
412 _154_:B2 _154_:B2 0
413 *61:1 *61:2 0
414 *61:4 *61:3 0
*END

*D_NET *62 0.0012335794839199998
*CONN
*I _169_:B I
*I _161_:A2 I
*I _159_:C1 I
*I _156_:X O
*CAP
288 *62:1 0.00012830406688
289 *62:2 0.00035484597524
290 *62:4 0.00028423114272
291 *62:5 0.00032321291168
292 *62:6 0.00014298538739999998
293 _156_:X 0
294 _161_:A2 0
295 _159_:C1 0
296 _169_:B 0
*RES
415 *62:1 _156_:X 1.232142857142857
416 *62:2 *62:3 3.946428571428571
417 *62:4 _159_:C1 2.875
418 *62:5 _169_:B 3.2857142857142856
419 *62:6 *62:2 1.5178571428571426
420 _156_:X _156_:X 0
421 *62:1 *62:2 0
422 _161_:A2 _161_:A2 0
423 _161_:A2 *62:3 0
424 _159_:C1 _159_:C1 0
425 *62:4 *62:7 0
426 _169_:B _169_:B 0
427 *62:5 *62:6 0
*END

*D_NET *63 0.00054861438456
*CONN
*I _159_:A1 I
*I _157_:Y O
*CAP
297 *63:1 0.00038132854871999994
298 _159_:A1 0.00016728583584
299 _157_:Y 0
300 *63:3 0
*RES
428 *63:1 *63:2 4.249999999999999
429 _159_:A1 *63:3 1.6428571428571428
430 _157_:Y _157_:Y 0
431 _157_:Y *63:1 0
432 *63:3 *63:2 0
433 _159_:A1 _159_:A1 0
*END

*D_NET *64 0.00087479566128
*CONN
*I _159_:A2 I
*I _158_:Y O
*CAP
301 *64:1 0.00024524937376
302 *64:2 0.0005402239896
303 _158_:Y 8.932229792e-05
304 _159_:A2 0
305 *64:4 0
*RES
434 *64:1 _159_:A2 2.464285714285714
435 *64:2 *64:3 6.07142857142857
436 _158_:Y *64:4 0.8214285714285714
437 _159_:A2 _159_:A2 0
438 *64:1 *64:2 0
439 *64:4 *64:3 0
440 _158_:Y _158_:Y 0
*END

*D_NET *65 0.00032321291168
*CONN
*I _161_:B2 I
*I _160_:X O
*CAP
306 _161_:B2 0.00032321291168
307 _160_:X 0
*RES
441 _161_:B2 _160_:X 3.2857142857142856
442 _161_:B2 _161_:B2 0
443 _160_:X _160_:X 0
*END

*D_NET *66 0.0053178667594000004
*CONN
*I _166_:A2 I
*I _164_:A2 I
*I _163_:A I
*I _161_:X O
*CAP
308 *66:1 0.00016946796088000002
309 *66:3 0.0021553560528000002
310 *66:5 0.0007388432907000001
311 *66:7 0.00062634973394
312 *66:9 9.002024044000002e-05
313 *66:11 0.00063506706336
314 _166_:A2 0.00012830406688
315 *66:13 0.00064615428352
316 _163_:A 0.00012830406688
317 *66:4 0
318 _161_:X 0
319 _164_:A2 0
320 *66:12 0
321 *66:15 0
*RES
444 *66:1 *66:2 1.8214285714285714
445 *66:3 *66:4 22.58928571428571
446 *66:5 *66:6 8.348214285714285
447 *66:7 *66:6 0.4107142857142857
448 *66:7 *66:8 6.5267857142857135
449 *66:9 *66:10 0.9107142857142857
450 *66:11 *66:3 6.571428571428571
451 _166_:A2 *66:12 1.232142857142857
452 *66:13 *66:14 7.285714285714286
453 _163_:A *66:15 1.232142857142857
454 _163_:A _163_:A 0
455 _163_:A *66:1 0
456 *66:3 *66:2 0
457 *66:4 *66:5 0
458 _161_:X _161_:X 0
459 _161_:X *66:8 0
460 _164_:A2 _164_:A2 0
461 _164_:A2 *66:9 0
462 *66:11 *66:10 0
463 _166_:A2 _166_:A2 0
464 *66:12 *66:13 0
465 *66:15 *66:14 0
*END

*D_NET *67 0.0014126517294400002
*CONN
*I _174_:B2 I
*I _174_:A2_N I
*I _164_:B1 I
*I _162_:Y O
*CAP
322 *67:1 0.00023626981952
323 *67:2 0.00030188082828000006
324 *67:4 0.00016847543872000001
325 *67:3 0.00046077626916000004
326 _174_:A2_N 0.00024524937376
327 _174_:B2 0
328 *67:7 0
329 _162_:Y 0
330 _164_:B1 0
331 *67:5 0
*RES
466 *67:1 _174_:B2 0.6071428571428571
467 *67:1 _174_:A2_N 1.6428571428571428
468 *67:2 *67:3 3.339285714285714
469 *67:4 _164_:B1 0.30357142857142855
470 *67:4 *67:5 1.232142857142857
471 *67:3 *67:6 5.160714285714286
472 _174_:A2_N *67:7 2.464285714285714
473 _174_:A2_N _174_:A2_N 0
474 _174_:B2 _174_:B2 0
475 *67:7 *67:3 0
476 _162_:Y _162_:Y 0
477 _162_:Y *67:2 0
478 _164_:B1 _164_:B1 0
479 *67:5 *67:6 0
*END

*D_NET *68 0.00149314238644
*CONN
*I _176_:C I
*I _166_:B2 I
*I _164_:B2 I
*I _163_:Y O
*CAP
332 *68:1 0.00011932451264000001
333 *68:2 0.00056670656308
334 _176_:C 0.0002062676048
335 _164_:B2 5.034052896000001e-05
336 *68:5 6.898398368e-05
337 *68:6 0.00028423114272
338 *68:8 0.00019728805056
339 _163_:Y 0
340 _166_:B2 0
*RES
480 *68:1 _163_:Y 0.4107142857142857
481 *68:2 *68:3 6.374999999999999
482 _176_:C *68:4 2.0535714285714284
483 *68:1 *68:4 0.6071428571428571
484 _164_:B2 *68:5 0.4107142857142857
485 *68:5 *68:6 0.6071428571428571
486 *68:6 *68:7 2.875
487 *68:8 *68:7 0.6071428571428571
488 *68:8 _176_:C 1.232142857142857
489 _163_:Y _163_:Y 0
490 *68:1 *68:3 0
491 _166_:B2 _166_:B2 0
492 _166_:B2 *68:2 0
493 _176_:C _176_:C 0
494 _164_:B2 _164_:B2 0
*END

*D_NET *69 0.0009239074572800001
*CONN
*I _175_:B2 I
*I _175_:A2_N I
*I _166_:B1 I
*I _165_:Y O
*CAP
341 *69:1 0.00016946796088000002
342 *69:3 8.932229792e-05
343 *69:4 0.00016728583584
344 *69:2 0.00035484597524
345 *69:5 0.00014298538739999998
346 _166_:B1 0
347 _165_:Y 0
348 _175_:B2 0
349 _175_:A2_N 0
*RES
495 *69:1 *69:2 1.8214285714285714
496 *69:3 _165_:Y 0.8214285714285714
497 *69:4 _175_:B2 1.6428571428571428
498 *69:2 *69:5 3.946428571428571
499 *69:5 *69:6 1.5178571428571426
500 _166_:B1 _166_:B1 0
501 _166_:B1 *69:2 0
502 *69:3 *69:1 0
503 _165_:Y _165_:Y 0
504 _175_:B2 _175_:B2 0